LTspice 24.1.2 for Windows
Circuit: C:\Users\hrast\OneDrive - Εθνικό Μετσόβιο Πολυτεχνείο\ALL_SEMESTERS\8th Semester\ΣΑΗΣ\LABS\Lab1\2_1_a.net
Start Time: Thu Feb 27 12:20:57 2025
solver = Normal
Maximum thread count: 8
tnom = 27
temp = 27
method = trap
Direct Newton iteration failed to find .op point.  (Use ".option noopiter" to skip.)
Starting Gmin stepping
Gmin = 10
Gmin = 1.07374
Gmin = 0.115292
Gmin = 0.0123794
Gmin = 0.00132923
Gmin = 0.000142725
Gmin = 1.5325e-05
Gmin = 1.6455e-06
vernier = 0.5
vernier = 0.666667
vernier = 0.333333
vernier = 0.166667
Gmin = 9.78362e-07
vernier = 0.0833333
vernier = 0.0416667
vernier = 0.0208333
vernier = 0.0104167
vernier = 0.00520833
vernier = 0.00260417
vernier = 0.00130208
vernier = 0.000651042
vernier = 0.000488281
Gmin = 0
Gmin = 0
Gmin stepping failed

Starting source stepping with srcstepmethod=0
Source Step = 3.0303%
Source Step = 28.0303%
Source Step = 35.6061%
Source Step = 43.1818%
Source Step = 50.7576%
Source Step = 58.3333%
Source Step = 65.9091%
vernier = 0.375
Source Step = 77.2727%
Source Step = 88.6364%
Source Step = 100%
Source stepping succeeded in finding the operating point.

Total elapsed time: 0.500 seconds.

Files loaded:
C:\Users\hrast\OneDrive - Εθνικό Μετσόβιο Πολυτεχνείο\ALL_SEMESTERS\8th Semester\ΣΑΗΣ\LABS\Lab1\2_1_a.net
C:\Users\hrast\LTspice\libs\LM324.lib

