LTspice 24.1.2 for Windows
Circuit: C:\Users\hrast\OneDrive - Εθνικό Μετσόβιο Πολυτεχνείο\HRAKLIS-ANTONIS\ΣΑΗΣ\Lab2\lab2_d.net
Start Time: Wed Mar  5 16:44:26 2025
solver = Normal
Maximum thread count: 8
tnom = 27
temp = 27
method = trap
Direct Newton iteration failed to find .op point.  (Use ".option noopiter" to skip.)
Starting Gmin stepping
Gmin = 10
Gmin = 1.07374
Gmin = 0.115292
Gmin = 0.0123794
Gmin = 0.00132923
Gmin = 0.000142725
vernier = 0.5
Gmin = 2.39452e-05
vernier = 0.666667
Gmin = 6.14784e-06
vernier = 0.888888
vernier = 1
vernier = 0.5
Gmin = 1.26463e-06
vernier = 0.25
vernier = 0.125
vernier = 0.0625
vernier = 0.03125
vernier = 0.015625
vernier = 0.0078125
vernier = 0.00390625
vernier = 0.00195312
vernier = 0.000976562
vernier = 0.000488281
Gmin = 1.26463e-06
Gmin = 0
Gmin stepping failed

Starting source stepping with srcstepmethod=0
Source Step = 3.0303%
Source Step = 33.3333%
Source Step = 49.2424%
Source Step = 56.8182%
Source Step = 64.3939%
Source Step = 71.9697%
Source Step = 79.5455%
vernier = 0.375
Source Step = 88.6364%
Source Step = 100%
Source stepping succeeded in finding the operating point.

Total elapsed time: 0.554 seconds.

Files loaded:
C:\Users\hrast\OneDrive - Εθνικό Μετσόβιο Πολυτεχνείο\HRAKLIS-ANTONIS\ΣΑΗΣ\Lab2\lab2_d.net
C:\Users\hrast\LTspice\libs\LM324.lib

