LTspice 24.1.4 for Windows
Circuit: C:\Users\anton\OneDrive - Εθνικό Μετσόβιο Πολυτεχνείο\Hraklis_Antonis\ΣΑΗΣ\Lab2\lab2_d.net
Start Time: Thu Mar  6 15:19:00 2025
solver = Normal
Maximum thread count: 8
tnom = 27
temp = 27
method = modified trap
Direct Newton iteration failed to find .op point.  (Use ".option noopiter" to skip.)
Starting Gmin stepping
Gmin = 10
Gmin = 1.07374
Gmin = 0.115292
Gmin = 0.0123794
Gmin = 0.00132923
Gmin = 0.000142725
Gmin = 1.5325e-05
vernier = 0.5
vernier = 0.666667
Gmin = 4.99842e-06
vernier = 0.888888
Gmin = 8.09366e-07
vernier = 0.444444
vernier = 0.222222
vernier = 0.111111
vernier = 0.0555555
vernier = 0.0277778
vernier = 0.0138889
vernier = 0.00694444
vernier = 0.00347222
vernier = 0.00173611
vernier = 0.000868055
Gmin = 9.89225e-07
vernier = 0.000434028
Gmin = 0
Gmin stepping failed

Starting source stepping with srcstepmethod=0
Source Step = 3.0303%
Source Step = 28.0303%
vernier = 0.0625
Source Step = 27.2934%
Source Step = 27.323%
Source Step = 27.3526%
Source Step = 27.3822%
Source Step = 27.4118%
vernier = 0.00146484
Source Step = 27.4488%
Source Step = 27.4932%
Source Step = 27.5376%
Source Step = 27.582%
Source Step = 27.6264%
vernier = 0.00219727
Source Step = 27.6796%
Source Step = 27.7462%
Source Step = 27.8128%
Source Step = 27.8794%
Source Step = 27.946%
vernier = 0.0032959
Source Step = 28.0225%
Source Step = 28.1224%
Source Step = 28.2223%
Source Step = 28.3222%
Source Step = 28.422%
vernier = 0.00494385
Source Step = 28.5319%
Source Step = 28.6817%
Source Step = 28.8315%
Source Step = 28.9813%
Source Step = 29.1312%
vernier = 0.00741577
Source Step = 29.2885%
Source Step = 29.5132%
Source Step = 29.7379%
Source Step = 29.9626%
Source Step = 30.1873%
Source Step = 30.4121%
vernier = 0.0111237
Source Step = 30.7491%
Source Step = 31.0862%
Source Step = 31.4233%
Source Step = 31.7604%
Source Step = 32.0975%
vernier = 0.0166855
Source Step = 32.5862%
Source Step = 33.0919%
Source Step = 33.5975%
Source Step = 34.1031%
Source Step = 34.6087%
vernier = 0.0250282
Source Step = 35.3166%
Source Step = 36.075%
Source Step = 36.8334%
Source Step = 37.5919%
Source Step = 38.3503%
vernier = 0.0375423
Source Step = 39.3742%
Source Step = 40.5118%
Source Step = 41.6495%
Source Step = 42.7871%
Source Step = 43.9248%
vernier = 0.0563135
Source Step = 45.4037%
Source Step = 47.1102%
Source Step = 48.8167%
Source Step = 50.5231%
Source Step = 52.2296%
vernier = 0.0844703
Source Step = 54.3627%
Source Step = 56.9224%
Source Step = 59.4821%
Source Step = 62.0418%
Source Step = 64.6015%
vernier = 0.126705
Source Step = 67.6732%
Source Step = 71.5127%
Source Step = 75.3523%
Source Step = 79.1918%
Source Step = 83.0314%
vernier = 0.190058
Source Step = 87.4469%
Source Step = 90.9115%
Source Step = 91.0015%
Source Step = 91.0915%
Source Step = 91.1814%
Source Step = 91.2714%
Source Step = 91.3614%
Source Step = 91.4514%
Source Step = 91.5414%
vernier = 0.00445449
Source Step = 91.6584%
Source Step = 91.7934%
Source Step = 91.9284%
Source Step = 92.0633%
Source Step = 92.1983%
vernier = 0.00668173
Source Step = 92.3671%
Source Step = 92.5695%
Source Step = 92.772%
Source Step = 92.9745%
Source Step = 93.177%
vernier = 0.0100226
Source Step = 93.4199%
Source Step = 93.7237%
Source Step = 94.0274%
Source Step = 94.3311%
Source Step = 94.6348%
vernier = 0.0150339
Source Step = 94.9841%
Source Step = 95.4396%
Source Step = 95.8952%
Source Step = 96.3508%
Source Step = 96.8064%
vernier = 0.0225508
Source Step = 97.3075%
Source Step = 97.9908%
Source Step = 98.6742%
Source Step = 99.3576%
Source Step = 100%
Source stepping succeeded in finding the operating point.

Direct Newton iteration failed to find .op point.  (Use ".option noopiter" to skip.)
Starting Gmin stepping
Gmin = 10
Gmin = 1.07374
Gmin = 0.115292
Gmin = 0.0123794
Gmin = 0.00132923
Gmin = 0.000142725
Gmin = 1.5325e-05
vernier = 0.5
vernier = 0.25
Gmin = 8.55108e-06
vernier = 0.333333
vernier = 0.444444
Gmin = 3.6295e-06
vernier = 0.592592
vernier = 0.790123
Gmin = 9.64496e-07
vernier = 0.395061
vernier = 0.197531
vernier = 0.0987653
vernier = 0.0493827
vernier = 0.0246913
vernier = 0.0123457
vernier = 0.00617283
vernier = 0.00308642
vernier = 0.00154321
Gmin = 9.64496e-07
vernier = 0.000771604
vernier = 0.000578703
vernier = 0.000434027
Gmin = 0
Gmin stepping failed

Starting source stepping with srcstepmethod=0
Source Step = 3.0303%
Source Step = 33.3333%
vernier = 0.25
Source Step = 30.3208%
Source Step = 30.3504%
Source Step = 30.38%
Source Step = 30.4096%
Source Step = 30.4392%
vernier = 0.00146484
Source Step = 30.4747%
Source Step = 30.5191%
Source Step = 30.5634%
Source Step = 30.6078%
Source Step = 30.6522%
vernier = 0.00219727
Source Step = 30.7033%
Source Step = 30.7699%
Source Step = 30.8364%
Source Step = 30.903%
Source Step = 30.9696%
vernier = 0.0032959
Source Step = 31.0429%
Source Step = 31.1427%
Source Step = 31.2426%
Source Step = 31.3425%
Source Step = 31.4424%
vernier = 0.00494385
Source Step = 31.5472%
Source Step = 31.697%
Source Step = 31.8468%
Source Step = 31.9967%
Source Step = 32.1465%
Source Step = 32.2963%
vernier = 0.00741577
Source Step = 32.521%
Source Step = 32.7457%
Source Step = 32.9705%
Source Step = 33.1952%
Source Step = 33.4199%
vernier = 0.0111237
Source Step = 33.7457%
Source Step = 34.0828%
Source Step = 34.4199%
Source Step = 34.757%
Source Step = 35.0941%
vernier = 0.0166855
Source Step = 35.566%
Source Step = 36.0716%
Source Step = 36.5772%
Source Step = 37.0828%
Source Step = 37.5885%
vernier = 0.0250282
Source Step = 38.271%
Source Step = 39.0295%
Source Step = 39.7879%
Source Step = 40.5463%
Source Step = 41.3048%
vernier = 0.0375423
Source Step = 42.2907%
Source Step = 43.4284%
Source Step = 44.566%
Source Step = 45.7037%
Source Step = 46.8413%
vernier = 0.0563135
Source Step = 48.2634%
Source Step = 49.9698%
Source Step = 51.6763%
Source Step = 53.3828%
Source Step = 55.0893%
vernier = 0.0844703
Source Step = 57.137%
Source Step = 59.6967%
Source Step = 62.2564%
Source Step = 64.8161%
Source Step = 67.3758%
vernier = 0.126705
Source Step = 70.3195%
Source Step = 74.1591%
Source Step = 77.9986%
Source Step = 81.8382%
Source Step = 85.6777%
vernier = 0.190058
Source Step = 89.9012%
Source Step = 95.6606%
Source Step = 100%
Source stepping succeeded in finding the operating point.

Direct Newton iteration failed to find .op point.  (Use ".option noopiter" to skip.)
Starting Gmin stepping
Gmin = 10
Gmin = 1.07374
Gmin = 0.115292
Gmin = 0.0123794
Gmin = 0.00132923
Gmin = 0.000142725
Gmin = 1.5325e-05
vernier = 0.5
vernier = 0.666667
Gmin = 4.99842e-06
vernier = 0.888888
Gmin = 8.09366e-07
vernier = 0.444444
vernier = 0.222222
vernier = 0.111111
vernier = 0.0555555
vernier = 0.0277778
vernier = 0.0138889
Gmin = 9.75605e-07
vernier = 0.0185185
vernier = 0.0246913
Gmin = 9.28357e-07
vernier = 0.0329218
vernier = 0.0438957
Gmin = 8.58219e-07
vernier = 0.0585276
Gmin = 7.55711e-07
vernier = 0.0780367
vernier = 0.104049
Gmin = 6.14106e-07
vernier = 0.0520245
vernier = 0.0260122
vernier = 0.0130061
vernier = 0.00650306
vernier = 0.00325153
vernier = 0.00162576
vernier = 0.000812882
Gmin = 6.14106e-07
vernier = 0.000406441
Gmin = 0
Gmin stepping failed

Starting source stepping with srcstepmethod=0
Source Step = 3.0303%
Source Step = 33.3333%
vernier = 0.25
Source Step = 30.3208%
Source Step = 30.3504%
Source Step = 30.38%
Source Step = 30.4096%
Source Step = 30.4392%
vernier = 0.00146484
Source Step = 30.4747%
Source Step = 30.5191%
Source Step = 30.5634%
Source Step = 30.6078%
Source Step = 30.6522%
vernier = 0.00219727
Source Step = 30.7033%
Source Step = 30.7699%
Source Step = 30.8364%
Source Step = 30.903%
Source Step = 30.9696%
vernier = 0.0032959
Source Step = 31.0429%
Source Step = 31.1427%
Source Step = 31.2426%
Source Step = 31.3425%
Source Step = 31.4424%
vernier = 0.00494385
Source Step = 31.5472%
Source Step = 31.697%
Source Step = 31.8468%
Source Step = 31.9967%
Source Step = 32.1465%
Source Step = 32.2963%
vernier = 0.00741577
Source Step = 32.521%
Source Step = 32.7457%
Source Step = 32.9705%
Source Step = 33.1952%
Source Step = 33.4199%
vernier = 0.0111237
Source Step = 33.7457%
Source Step = 34.0828%
Source Step = 34.4199%
Source Step = 34.757%
Source Step = 35.0941%
vernier = 0.0166855
Source Step = 35.566%
Source Step = 36.0716%
Source Step = 36.5772%
Source Step = 37.0828%
Source Step = 37.5885%
vernier = 0.0250282
Source Step = 38.271%
Source Step = 39.0295%
Source Step = 39.7879%
Source Step = 40.5463%
Source Step = 41.3048%
vernier = 0.0375423
Source Step = 42.2907%
Source Step = 43.4284%
Source Step = 44.566%
Source Step = 45.7037%
Source Step = 46.8413%
vernier = 0.0563135
Source Step = 48.2634%
Source Step = 49.9698%
Source Step = 51.6763%
Source Step = 53.3828%
Source Step = 55.0893%
vernier = 0.0844703
Source Step = 57.137%
Source Step = 59.6967%
Source Step = 62.2564%
Source Step = 64.8161%
Source Step = 67.3758%
vernier = 0.126705
Source Step = 70.3195%
Source Step = 74.1591%
Source Step = 77.9986%
Source Step = 81.8382%
Source Step = 85.6777%
vernier = 0.190058
Source Step = 89.9012%
Source Step = 95.6606%
Source Step = 100%
Source stepping succeeded in finding the operating point.

.step 
Total elapsed time: 7.312 seconds.

Files loaded:
C:\Users\anton\OneDrive - Εθνικό Μετσόβιο Πολυτεχνείο\Hraklis_Antonis\ΣΑΗΣ\Lab2\lab2_d.net
C:\Users\anton\Documents\LTspice\libs\LM324.lib

