LTspice 24.1.4 for Windows
Circuit: C:\Users\anton\OneDrive - Εθνικό Μετσόβιο Πολυτεχνείο\Hraklis_Antonis\ΣΑΗΣ\Lab3\lab_3.net
Start Time: Sun Mar  9 19:18:22 2025
solver = Normal
Maximum thread count: 8
tnom = 27
temp = 27
method = modified trap
WARNING: Node nc_01 is floating.

Direct Newton iteration failed to find .op point.  (Use ".option noopiter" to skip.)
Starting Gmin stepping
Gmin = 10
Gmin = 1.07374
Gmin = 0.115292
Gmin = 0.0123794
Gmin = 0.00132923
Gmin = 0.000142725
Gmin = 1.5325e-05
vernier = 0.5
vernier = 0.666667
Gmin = 4.99842e-06
vernier = 0.888888
Gmin = 8.09366e-07
vernier = 0.444444
vernier = 0.222222
vernier = 0.111111
vernier = 0.0555555
vernier = 0.0277778
vernier = 0.0138889
vernier = 0.00694444
vernier = 0.00347222
vernier = 0.00173611
vernier = 0.000868055
Gmin = 9.89225e-07
vernier = 0.000434028
Gmin = 0
Gmin stepping failed

Starting source stepping with srcstepmethod=0
Source Step = 3.0303%
Source Step = 33.3333%
Source Step = 63.6364%
Source Step = 93.9394%
Source stepping succeeded in finding the operating point.

Total elapsed time: 0.869 seconds.

Files loaded:
C:\Users\anton\OneDrive - Εθνικό Μετσόβιο Πολυτεχνείο\Hraklis_Antonis\ΣΑΗΣ\Lab3\lab_3.net
C:\Users\anton\AppData\Local\LTspice\lib\cmp\standard.mos
C:\Users\anton\Documents\LTspice\libs\LM324.lib

