LTspice 24.1.4 for Windows
Circuit: C:\Users\anton\OneDrive - Εθνικό Μετσόβιο Πολυτεχνείο\Hraklis_Antonis\ΣΑΗΣ\Lab3\lab_3.net
Start Time: Thu Mar  6 21:44:35 2025
solver = Normal
Maximum thread count: 8
tnom = 27
temp = 27
method = modified trap
C:\Users\anton\OneDrive - Εθνικό Μετσόβιο Πολυτεχνείο\Hraklis_Antonis\ΣΑΗΣ\Lab3\lab_3.net(13): Limiting rise time to 1e-05.

V§Uctrl N003 0 PULSE(5 2 0 0 0 0.1m 0.5m 10) AC 0.5
^^^^^^^^^^^^^^^^^^^^^^^^^^^^^^^^^^^^^^^^^^^^^^^^^^^
C:\Users\anton\OneDrive - Εθνικό Μετσόβιο Πολυτεχνείο\Hraklis_Antonis\ΣΑΗΣ\Lab3\lab_3.net(13): Limiting fall time to 1e-05.

V§Uctrl N003 0 PULSE(5 2 0 0 0 0.1m 0.5m 10) AC 0.5
^^^^^^^^^^^^^^^^^^^^^^^^^^^^^^^^^^^^^^^^^^^^^^^^^^^
WARNING: Node nc_01 is floating.

Direct Newton iteration failed to find .op point.  (Use ".option noopiter" to skip.)
Starting Gmin stepping
Gmin = 10
Gmin = 1.07374
Gmin = 0.115292
Gmin = 0.0123794
Gmin = 0.00132923
Gmin = 0.000142725
Gmin = 1.5325e-05
vernier = 0.5
vernier = 0.666667
Gmin = 4.99842e-06
vernier = 0.888888
Gmin = 8.09366e-07
vernier = 0.444444
