LTspice 24.1.4 for Windows
Circuit: C:\Users\anton\OneDrive - Εθνικό Μετσόβιο Πολυτεχνείο\Hraklis_Antonis\ΣΑΗΣ\Lab3\lab_3.net
Start Time: Sun Mar  9 18:51:16 2025
solver = Normal
Maximum thread count: 8
tnom = 27
temp = 27
method = modified trap
WARNING: Node nc_01 is floating.

Direct Newton iteration failed to find .op point.  (Use ".option noopiter" to skip.)
Starting Gmin stepping
Gmin = 10
Gmin = 1.07374
Gmin = 0.115292
Gmin = 0.0123794
Gmin = 0.00132923
Gmin = 0.000142725
Gmin = 1.5325e-05
vernier = 0.5
vernier = 0.666667
Gmin = 4.99842e-06
vernier = 0.888888
Gmin = 8.09366e-07
vernier = 0.444444
vernier = 0.222222
vernier = 0.111111
vernier = 0.0555555
vernier = 0.0277778
vernier = 0.0138889
vernier = 0.00694444
vernier = 0.00347222
vernier = 0.00173611
vernier = 0.000868055
Gmin = 9.89225e-07
vernier = 0.000434028
Gmin = 0
Gmin stepping failed

Starting source stepping with srcstepmethod=0
Source Step = 3.0303%
Source Step = 28.0303%
vernier = 0.0625
Source Step = 27.2934%
Source Step = 27.323%
Source Step = 27.3526%
Source Step = 27.3822%
Source Step = 27.4118%
vernier = 0.00146484
Source Step = 27.4503%
Source Step = 27.4947%
Source Step = 27.5391%
Source Step = 27.5835%
Source Step = 27.6278%
vernier = 0.00219727
Source Step = 27.6833%
Source Step = 27.7499%
Source Step = 27.8165%
Source Step = 27.8831%
Source Step = 27.9497%
vernier = 0.0032959
Source Step = 28.0296%
Source Step = 28.1294%
Source Step = 28.2293%
Source Step = 28.3292%
Source Step = 28.4291%
vernier = 0.00494385
Source Step = 28.5439%
Source Step = 28.6937%
Source Step = 28.8436%
Source Step = 28.9934%
Source Step = 29.1432%
vernier = 0.00741577
Source Step = 29.308%
Source Step = 29.5327%
Source Step = 29.7574%
Source Step = 29.9821%
Source Step = 30.2069%
vernier = 0.0111237
Source Step = 30.4428%
Source Step = 30.7799%
Source Step = 31.117%
Source Step = 31.4541%
Source Step = 31.7911%
Source Step = 32.1282%
vernier = 0.0166855
Source Step = 32.6338%
Source Step = 33.1395%
Source Step = 33.6451%
Source Step = 34.1507%
Source Step = 34.6563%
vernier = 0.0250282
Source Step = 35.3895%
Source Step = 36.1479%
Source Step = 36.9063%
Source Step = 37.6648%
Source Step = 38.4232%
vernier = 0.0375423
Source Step = 39.485%
Source Step = 40.6226%
Source Step = 41.7603%
Source Step = 42.8979%
Source Step = 44.0356%
vernier = 0.0563135
Source Step = 45.5714%
Source Step = 47.2779%
Source Step = 48.9843%
Source Step = 50.6908%
Source Step = 52.3973%
vernier = 0.0844703
Source Step = 54.6157%
Source Step = 57.1754%
Source Step = 59.7351%
Source Step = 62.2948%
Source Step = 64.8545%
vernier = 0.126705
Source Step = 68.0541%
Source Step = 71.8937%
Source Step = 75.7333%
Source Step = 79.5728%
Source Step = 83.4124%
vernier = 0.190058
Source Step = 88.0199%
Source Step = 93.7792%
Source Step = 99.5385%
Source stepping succeeded in finding the operating point.

Direct Newton iteration failed to find .op point.  (Use ".option noopiter" to skip.)
Starting Gmin stepping
Gmin = 10
Gmin = 1.07374
Gmin = 0.115292
Gmin = 0.0123794
Gmin = 0.00132923
Gmin = 0.000142725
Gmin = 1.5325e-05
vernier = 0.5
vernier = 0.666667
Gmin = 4.99842e-06
vernier = 0.888888
Gmin = 8.09366e-07
vernier = 0.444444
vernier = 0.222222
vernier = 0.111111
vernier = 0.0555555
vernier = 0.0277778
vernier = 0.0138889
vernier = 0.00694444
vernier = 0.00347222
vernier = 0.00173611
vernier = 0.000868055
Gmin = 9.89225e-07
vernier = 0.000434028
Gmin = 0
Gmin stepping failed

Starting source stepping with srcstepmethod=0
Source Step = 3.0303%
Source Step = 28.0303%
vernier = 0.0625
Source Step = 27.3674%
Source Step = 27.4858%
Source Step = 27.6042%
Source Step = 27.7225%
Source Step = 27.8409%
vernier = 0.00585938
Source Step = 28.0007%
Source Step = 28.1783%
Source Step = 28.3558%
Source Step = 28.5334%
Source Step = 28.7109%
vernier = 0.00878906
Source Step = 28.9418%
Source Step = 29.2081%
Source Step = 29.4744%
Source Step = 29.7408%
Source Step = 30.0071%
vernier = 0.0131836
Source Step = 30.34%
Source Step = 30.7395%
Source Step = 31.139%
Source Step = 31.5385%
Source Step = 31.938%
vernier = 0.0197754
Source Step = 32.4174%
Source Step = 33.0167%
Source Step = 33.6159%
Source Step = 34.2152%
Source Step = 34.8145%
vernier = 0.0296631
Source Step = 35.5036%
Source Step = 36.4025%
Source Step = 37.3014%
Source Step = 38.2002%
Source Step = 39.0991%
vernier = 0.0444946
Source Step = 40.0879%
Source Step = 41.4362%
Source Step = 42.7845%
Source Step = 44.1329%
Source Step = 45.4812%
vernier = 0.0667419
Source Step = 46.8969%
Source Step = 48.9194%
Source Step = 50.9419%
Source Step = 52.9644%
Source Step = 54.9868%
Source Step = 57.0093%
vernier = 0.100113
Source Step = 60.0431%
Source Step = 62.5459%
vernier = 0.00625706
Source Step = 62.5127%
Source Step = 62.5601%
Source Step = 62.6075%
Source Step = 62.6549%
Source Step = 62.7023%
vernier = 0.0023464
Source Step = 62.7663%
Source Step = 62.8374%
Source Step = 62.9085%
Source Step = 62.9796%
Source Step = 63.0507%
vernier = 0.00351959
Source Step = 63.1431%
Source Step = 63.2498%
Source Step = 63.3565%
Source Step = 63.4631%
Source Step = 63.5698%
vernier = 0.00527939
Source Step = 63.7031%
Source Step = 63.8631%
Source Step = 64.023%
Source Step = 64.183%
Source Step = 64.343%
vernier = 0.00791909
Source Step = 64.535%
Source Step = 64.775%
Source Step = 65.0149%
Source Step = 65.2549%
Source Step = 65.4949%
vernier = 0.0118786
Source Step = 65.7708%
Source Step = 66.1308%
Source Step = 66.4908%
Source Step = 66.8507%
Source Step = 67.2107%
vernier = 0.0178179
Source Step = 67.6066%
Source Step = 68.1466%
Source Step = 68.6865%
Source Step = 69.2264%
Source Step = 69.7664%
vernier = 0.0267269
Source Step = 70.3333%
Source Step = 71.1432%
Source Step = 71.9531%
Source Step = 72.763%
Source Step = 73.5729%
Source Step = 74.3829%
vernier = 0.0400904
Source Step = 75.5977%
Source Step = 76.8126%
Source Step = 78.0274%
Source Step = 79.2423%
Source Step = 80.4572%
vernier = 0.0601356
Source Step = 82.2187%
Source Step = 84.041%
Source Step = 85.8633%
Source Step = 87.6856%
Source Step = 89.5079%
vernier = 0.0902034
Source Step = 90.1627%
Source Step = 90.2055%
Source Step = 90.2482%
Source Step = 90.2909%
Source Step = 90.3336%
vernier = 0.00211414
Source Step = 90.3784%
Source Step = 90.4425%
Source Step = 90.5066%
Source Step = 90.5706%
Source Step = 90.6347%
Source Step = 90.6988%
vernier = 0.00317121
Source Step = 90.7949%
Source Step = 90.8909%
Source Step = 90.987%
Source Step = 91.0831%
Source Step = 91.1792%
vernier = 0.00475682
Source Step = 91.3186%
Source Step = 91.4627%
Source Step = 91.6069%
Source Step = 91.751%
Source Step = 91.8952%
vernier = 0.00713523
Source Step = 92.097%
Source Step = 92.3132%
Source Step = 92.5294%
Source Step = 92.7456%
Source Step = 92.9618%
vernier = 0.0107028
Source Step = 93.2537%
Source Step = 93.5781%
Source Step = 93.9024%
Source Step = 94.2267%
Source Step = 94.5511%
vernier = 0.0160543
Source Step = 94.9727%
Source Step = 95.4592%
Source Step = 95.9457%
Source Step = 96.4322%
Source Step = 96.9187%
vernier = 0.0240814
Source Step = 97.5268%
Source Step = 98.2565%
Source Step = 98.9862%
Source Step = 99.716%
Source stepping succeeded in finding the operating point.

Direct Newton iteration failed to find .op point.  (Use ".option noopiter" to skip.)
Starting Gmin stepping
Gmin = 10
Gmin = 1.07374
Gmin = 0.115292
Gmin = 0.0123794
Gmin = 0.00132923
Gmin = 0.000142725
Gmin = 1.5325e-05
vernier = 0.5
vernier = 0.666667
Gmin = 4.99842e-06
vernier = 0.888888
Gmin = 8.09366e-07
vernier = 0.444444
vernier = 0.222222
vernier = 0.111111
vernier = 0.0555555
vernier = 0.0277778
vernier = 0.0138889
vernier = 0.00694444
vernier = 0.00347222
vernier = 0.00173611
vernier = 0.000868055
Gmin = 9.89225e-07
vernier = 0.000434028
Gmin = 0
Gmin stepping failed

Starting source stepping with srcstepmethod=0
Source Step = 3.0303%
Source Step = 33.3333%
Source Step = 63.6364%
Source Step = 63.6512%
Source Step = 63.6808%
Source Step = 63.7103%
Source Step = 63.7399%
Source Step = 63.7695%
vernier = 0.00146484
Source Step = 63.8036%
Source Step = 63.848%
Source Step = 63.8923%
Source Step = 63.9367%
Source Step = 63.9811%
vernier = 0.00219727
Source Step = 64.0299%
Source Step = 64.0965%
Source Step = 64.1631%
Source Step = 64.2297%
Source Step = 64.2963%
vernier = 0.0032959
Source Step = 64.3662%
Source Step = 64.4661%
Source Step = 64.5659%
Source Step = 64.6658%
Source Step = 64.7657%
Source Step = 64.8656%
vernier = 0.00494385
Source Step = 65.0154%
Source Step = 65.1652%
Source Step = 65.315%
Source Step = 65.4648%
Source Step = 65.6146%
vernier = 0.00741577
Source Step = 65.8319%
Source Step = 66.0566%
Source Step = 66.2813%
Source Step = 66.506%
Source Step = 66.7308%
vernier = 0.0111237
Source Step = 67.0454%
Source Step = 67.3824%
Source Step = 67.7195%
Source Step = 68.0566%
Source Step = 68.3937%
vernier = 0.0166855
Source Step = 68.8487%
Source Step = 69.3544%
Source Step = 69.86%
Source Step = 70.3656%
Source Step = 70.8712%
vernier = 0.0250282
Source Step = 71.5285%
Source Step = 72.287%
Source Step = 73.0454%
Source Step = 73.8038%
Source Step = 74.5623%
vernier = 0.0375423
Source Step = 75.5103%
Source Step = 76.6479%
Source Step = 77.7856%
Source Step = 78.9232%
Source Step = 80.0609%
vernier = 0.0563135
Source Step = 81.4261%
Source Step = 83.1325%
Source Step = 84.839%
Source Step = 86.5455%
Source Step = 88.2519%
vernier = 0.0844703
Source Step = 90.2144%
Source Step = 90.2424%
Source Step = 90.2824%
Source Step = 90.3224%
Source Step = 90.3624%
Source Step = 90.4024%
Source Step = 90.4424%
Source Step = 90.4824%
vernier = 0.00197977
Source Step = 90.5263%
Source Step = 90.5863%
Source Step = 90.6463%
Source Step = 90.7063%
Source Step = 90.7663%
vernier = 0.00296966
Source Step = 90.8293%
Source Step = 90.9193%
Source Step = 91.0093%
Source Step = 91.0993%
Source Step = 91.1893%
Source Step = 91.2793%
vernier = 0.00445449
Source Step = 91.4142%
Source Step = 91.5492%
Source Step = 91.6842%
Source Step = 91.8192%
Source Step = 91.9542%
vernier = 0.00668173
Source Step = 92.1499%
Source Step = 92.3524%
Source Step = 92.5549%
Source Step = 92.7573%
Source Step = 92.9598%
vernier = 0.0100226
Source Step = 93.2433%
Source Step = 93.547%
Source Step = 93.8507%
Source Step = 94.1544%
Source Step = 94.4581%
vernier = 0.0150339
Source Step = 94.8682%
Source Step = 95.3237%
Source Step = 95.7793%
Source Step = 96.2349%
Source Step = 96.6904%
vernier = 0.0225508
Source Step = 97.2827%
Source Step = 97.9661%
Source Step = 98.6494%
Source Step = 99.3328%
Source Step = 100%
Source stepping succeeded in finding the operating point.

Direct Newton iteration failed to find .op point.  (Use ".option noopiter" to skip.)
Starting Gmin stepping
Gmin = 10
Gmin = 1.07374
Gmin = 0.115292
Gmin = 0.0123794
Gmin = 0.00132923
Gmin = 0.000142725
Gmin = 1.5325e-05
vernier = 0.5
vernier = 0.666667
Gmin = 4.99842e-06
vernier = 0.888888
Gmin = 8.09366e-07
vernier = 0.444444
vernier = 0.222222
vernier = 0.111111
vernier = 0.0555555
vernier = 0.0277778
vernier = 0.0138889
vernier = 0.00694444
vernier = 0.00347222
vernier = 0.00173611
vernier = 0.000868055
Gmin = 9.89225e-07
vernier = 0.000434028
Gmin = 0
Gmin stepping failed

Starting source stepping with srcstepmethod=0
Source Step = 3.0303%
Source Step = 28.0303%
vernier = 0.0625
Source Step = 27.2934%
Source Step = 27.323%
Source Step = 27.3526%
Source Step = 27.3822%
Source Step = 27.4118%
vernier = 0.00146484
Source Step = 27.4488%
Source Step = 27.4932%
Source Step = 27.5376%
Source Step = 27.582%
Source Step = 27.6264%
vernier = 0.00219727
Source Step = 27.6796%
Source Step = 27.7462%
Source Step = 27.8128%
Source Step = 27.8794%
Source Step = 27.946%
vernier = 0.0032959
Source Step = 28.0225%
Source Step = 28.1224%
Source Step = 28.2223%
Source Step = 28.3222%
Source Step = 28.422%
vernier = 0.00494385
Source Step = 28.5319%
Source Step = 28.6817%
Source Step = 28.8315%
Source Step = 28.9813%
Source Step = 29.1312%
vernier = 0.00741577
Source Step = 29.2885%
Source Step = 29.5132%
Source Step = 29.7379%
Source Step = 29.9626%
Source Step = 30.1873%
Source Step = 30.4121%
vernier = 0.0111237
Source Step = 30.7491%
Source Step = 31.0862%
Source Step = 31.4233%
Source Step = 31.7604%
Source Step = 32.0975%
vernier = 0.0166855
Source Step = 32.5862%
Source Step = 33.0919%
Source Step = 33.5975%
Source Step = 34.1031%
Source Step = 34.6087%
vernier = 0.0250282
Source Step = 35.3166%
Source Step = 36.075%
Source Step = 36.8334%
Source Step = 37.5919%
Source Step = 38.3503%
vernier = 0.0375423
Source Step = 39.3742%
Source Step = 40.5118%
Source Step = 41.6495%
Source Step = 42.7871%
Source Step = 43.9248%
vernier = 0.0563135
Source Step = 45.4037%
Source Step = 47.1102%
Source Step = 48.8167%
Source Step = 50.5231%
Source Step = 52.2296%
vernier = 0.0844703
Source Step = 54.3627%
Source Step = 56.9224%
Source Step = 59.4821%
Source Step = 62.0418%
Source Step = 64.6015%
vernier = 0.126705
Source Step = 67.6732%
Source Step = 71.5127%
Source Step = 75.3523%
Source Step = 79.1918%
Source Step = 83.0314%
vernier = 0.190058
Source Step = 87.4469%
Source Step = 90.9115%
Source Step = 91.0015%
Source Step = 91.0915%
Source Step = 91.1814%
Source Step = 91.2714%
Source Step = 91.3614%
Source Step = 91.4514%
Source Step = 91.5414%
Source Step = 91.6314%
Source Step = 91.7214%
Source Step = 91.8114%
Source Step = 91.9014%
Source Step = 91.9914%
Source Step = 92.0813%
Source Step = 92.1713%
Source Step = 92.2613%
Source Step = 92.3513%
Source Step = 92.4413%
Source Step = 92.5313%
Source Step = 92.6213%
Source Step = 92.7113%
Source Step = 92.8013%
Source Step = 92.8912%
Source Step = 92.9812%
Source Step = 93.0712%
Source Step = 93.1612%
Source Step = 93.2512%
Source Step = 93.3412%
Source Step = 93.4312%
Source Step = 93.5212%
Source Step = 93.6112%
Source Step = 93.7012%
Source Step = 93.7911%
Source Step = 93.8811%
Source Step = 93.9711%
Source Step = 94.0611%
Source Step = 94.1511%
Source Step = 94.2411%
Source Step = 94.3311%
Source Step = 94.4211%
Source Step = 94.5111%
Source Step = 94.6011%
Source Step = 94.691%
Source Step = 94.781%
Source Step = 94.871%
Source Step = 94.961%
Source Step = 95.051%
Source Step = 95.141%
Source Step = 95.231%
Source Step = 95.321%
Source Step = 95.411%
Source Step = 95.5009%
Source Step = 95.5909%
Source Step = 95.6809%
Source Step = 95.7709%
Source Step = 95.8609%
Source Step = 95.9509%
Source Step = 96.0409%
Source Step = 96.1309%
Source Step = 96.2209%
Source Step = 96.3109%
Source Step = 96.4008%
Source Step = 96.4908%
Source Step = 96.5808%
Source Step = 96.6708%
Source Step = 96.7608%
Source Step = 96.8508%
Source Step = 96.9408%
Source Step = 97.0308%
Source Step = 97.1208%
Source Step = 97.2108%
Source Step = 97.3007%
Source Step = 97.3907%
Source Step = 97.4807%
Source Step = 97.5707%
Source Step = 97.6607%
Source Step = 97.7507%
Source Step = 97.8407%
Source Step = 97.9307%
Source Step = 98.0207%
Source Step = 98.1106%
Source Step = 98.2006%
Source Step = 98.2906%
Source Step = 98.3806%
Source Step = 98.4706%
Source Step = 98.5606%
Source Step = 98.6506%
Source Step = 98.7406%
Source Step = 98.8306%
Source Step = 98.9206%
Source Step = 99.0105%
Source Step = 99.1005%
Source Step = 99.1905%
Source Step = 99.2805%
Source Step = 99.3705%
Source Step = 99.4605%
Source Step = 99.5505%
Source Step = 99.6405%
Source Step = 99.7305%
Source Step = 99.8205%
Source Step = 99.9104%
Source Step = 100%
Source Step = 100%
Source Step = 100%
Source Step = 100%
Source Step = 100%
Source Step = 100%
Source Step = 100%
Source Step = 100%
Source Step = 100%
Source Step = 100%
Source Step = 100%
Source Step = 100%
Source Step = 100%
Source Step = 100%
Source Step = 100%
Source Step = 100%
Source Step = 100%
Source Step = 100%
Source Step = 100%
Source Step = 100%
Source Step = 100%
Source Step = 100%
Source Step = 100%
Source Step = 100%
Source Step = 100%
Source Step = 100%
Source Step = 100%
Source Step = 100%
Source Step = 100%
Source Step = 100%
Source Step = 100%
Source Step = 100%
Source Step = 100%
Source Step = 100%
Source Step = 100%
Source Step = 100%
Source Step = 100%
Source Step = 100%
Source Step = 100%
Source Step = 100%
Source Step = 100%
Source Step = 100%
Source Step = 100%
Source Step = 100%
Source Step = 100%
Source Step = 100%
Source Step = 100%
Source Step = 100%
Source Step = 100%
Source Step = 100%
Source Step = 100%
Source Step = 100%
Source Step = 100%
Source Step = 100%
Source Step = 100%
Source Step = 100%
Source Step = 100%
Source Step = 100%
Source Step = 100%
Source Step = 100%
Source Step = 100%
Source Step = 100%
Source Step = 100%
Source Step = 100%
Source Step = 100%
Source Step = 100%
Source Step = 100%
Source Step = 100%
Source Step = 100%
Source Step = 100%
Source Step = 100%
Source Step = 100%
Source Step = 100%
Source Step = 100%
Source Step = 100%
Source Step = 100%
Source Step = 100%
Source Step = 100%
Source Step = 100%
Source Step = 100%
Source Step = 100%
Source Step = 100%
Source Step = 100%
Source Step = 100%
Source Step = 100%
Source Step = 100%
Source Step = 100%
Source Step = 100%
Source Step = 100%
Source Step = 100%
Source Step = 100%
Source Step = 100%
Source Step = 100%
Source Step = 100%
Source Step = 100%
Source Step = 100%
Source Step = 100%
Source Step = 100%
Source Step = 100%
Source Step = 100%
Source Step = 100%
Source Step = 100%
Source Step = 100%
Source Step = 100%
Source Step = 100%
Source Step = 100%
Source Step = 100%
Source Step = 100%
Source Step = 100%
Source Step = 100%
Source Step = 100%
Source Step = 100%
Source Step = 100%
Source Step = 100%
Source Step = 100%
Source Step = 100%
Source Step = 100%
Source Step = 100%
Source Step = 100%
Source Step = 100%
Source Step = 100%
Source Step = 100%
Source Step = 100%
Source Step = 100%
Source Step = 100%
Source Step = 100%
Source Step = 100%
Source Step = 100%
Source Step = 100%
Source Step = 100%
Source Step = 100%
Source Step = 100%
Source Step = 100%
Source Step = 100%
Source Step = 100%
Source Step = 100%
Source Step = 100%
Source Step = 100%
Source Step = 100%
Source Step = 100%
Source Step = 100%
Source Step = 100%
Source Step = 100%
Source Step = 100%
Source Step = 100%
Source Step = 100%
Source Step = 100%
Source Step = 100%
Source Step = 100%
Source Step = 100%
Source Step = 100%
Source Step = 100%
Source Step = 100%
Source Step = 100%
Source Step = 100%
Source Step = 100%
Source Step = 100%
Source Step = 100%
Source Step = 100%
Source Step = 100%
Source Step = 100%
Source Step = 100%
Source Step = 100%
Source Step = 100%
Source Step = 100%
Source Step = 100%
Source Step = 100%
Source Step = 100%
Source Step = 100%
Source Step = 100%
Source Step = 100%
Source Step = 100%
Source Step = 100%
Source Step = 100%
Source Step = 100%
Source Step = 100%
Source Step = 100%
Source Step = 100%
Source Step = 100%
Source Step = 100%
Source Step = 100%
Source Step = 100%
Source Step = 100%
Source Step = 100%
Source Step = 100%
Source Step = 100%
Source Step = 100%
Source Step = 100%
Source Step = 100%
Source Step = 100%
Source Step = 100%
Source Step = 100%
Source Step = 100%
Source Step = 100%
Source Step = 100%
Source Step = 100%
Source Step = 100%
Source Step = 100%
Source Step = 100%
Source Step = 100%
Source Step = 100%
Source Step = 100%
Source Step = 100%
Source Step = 100%
Source Step = 100%
Source Step = 100%
Source Step = 100%
Source Step = 100%
Source Step = 100%
Source Step = 100%
Source Step = 100%
Source Step = 100%
Source Step = 100%
Source Step = 100%
Source Step = 100%
Source Step = 100%
Source Step = 100%
Source Step = 100%
Source Step = 100%
Source Step = 100%
Source Step = 100%
Source Step = 100%
Source Step = 100%
Source Step = 100%
Source Step = 100%
Source Step = 100%
Source Step = 100%
Source Step = 100%
Source Step = 100%
Source Step = 100%
Source Step = 100%
Source Step = 100%
Source Step = 100%
Source Step = 100%
Source Step = 100%
Source Step = 100%
Source Step = 100%
Source Step = 100%
Source Step = 100%
Source Step = 100%
Source Step = 100%
Source Step = 100%
Source Step = 100%
Source Step = 100%
Source Step = 100%
Source Step = 100%
Source Step = 100%
Source Step = 100%
Source Step = 100%
Source Step = 100%
Source Step = 100%
Source Step = 100%
Source Step = 100%
Source Step = 100%
Source Step = 100%
Source Step = 100%
Source Step = 100%
Source Step = 100%
Source Step = 100%
Source Step = 100%
Source Step = 100%
Source Step = 100%
Source Step = 100%
Source Step = 100%
Source Step = 100%
Source Step = 100%
Source Step = 100%
Source Step = 100%
Source Step = 100%
Source Step = 100%
Source Step = 100%
Source Step = 100%
Source Step = 100%
Source Step = 100%
Source Step = 100%
Source Step = 100%
Source Step = 100%
Source Step = 100%
Source Step = 100%
Source Step = 100%
Source Step = 100%
Source Step = 100%
Source Step = 100%
Source Step = 100%
Source Step = 100%
Source Step = 100%
Source Step = 100%
Source Step = 100%
Source Step = 100%
Source Step = 100%
Source Step = 100%
Source Step = 100%
Source Step = 100%
Source Step = 100%
Source Step = 100%
Source Step = 100%
Source Step = 100%
Source Step = 100%
Source Step = 100%
Source Step = 100%
Source Step = 100%
Source Step = 100%
Source Step = 100%
Source Step = 100%
Source Step = 100%
Source Step = 100%
Source Step = 100%
Source Step = 100%
Source Step = 100%
Source Step = 100%
Source Step = 100%
Source Step = 100%
Source Step = 100%
Source Step = 100%
Source Step = 100%
Source Step = 100%
Source Step = 100%
Source Step = 100%
Source Step = 100%
Source Step = 100%
Source Step = 100%
Source Step = 100%
Source Step = 100%
Source Step = 100%
Source Step = 100%
Source Step = 100%
Source Step = 100%
Source Step = 100%
Source Step = 100%
Source Step = 100%
Source Step = 100%
Source Step = 100%
Source Step = 100%
Source Step = 100%
Source Step = 100%
Source Step = 100%
Source Step = 100%
Source Step = 100%
Source Step = 100%
Source Step = 100%
Source Step = 100%
Source Step = 100%
Source Step = 100%
Source Step = 100%
Source Step = 100%
Source Step = 100%
Source Step = 100%
Source Step = 100%
Source Step = 100%
Source Step = 100%
Source Step = 100%
Source Step = 100%
Source Step = 100%
Source Step = 100%
Source Step = 100%
Source Step = 100%
Source Step = 100%
Source Step = 100%
Source Step = 100%
Source Step = 100%
Source Step = 100%
Source Step = 100%
Source Step = 100%
Source Step = 100%
Source Step = 100%
Source Step = 100%
Source Step = 100%
Source Step = 100%
Source Step = 100%
Source Step = 100%
Source Step = 100%
Source Step = 100%
Source Step = 100%
Source Step = 100%
Source Step = 100%
Source Step = 100%
Source Step = 100%
Source Step = 100%
Source Step = 100%
Source Step = 100%
Source Step = 100%
Source Step = 100%
Source Step = 100%
Source Step = 100%
Source Step = 100%
Source Step = 100%
Source Step = 100%
Source Step = 100%
Source Step = 100%
Source Step = 100%
Source Step = 100%
Source Step = 100%
Source Step = 100%
Source Step = 100%
Source Step = 100%
Source Step = 100%
Source Step = 100%
Source Step = 100%
Source Step = 100%
Source Step = 100%
Source Step = 100%
Source Step = 100%
Source Step = 100%
Source Step = 100%
Source Step = 100%
Source Step = 100%
Source Step = 100%
Source Step = 100%
Source Step = 100%
Source Step = 100%
Source Step = 100%
Source Step = 100%
Source Step = 100%
Source Step = 100%
Source Step = 100%
Source Step = 100%
Source Step = 100%
Source Step = 100%
Source Step = 100%
Source Step = 100%
Source Step = 100%
Source Step = 100%
Source Step = 100%
Source Step = 100%
Source Step = 100%
Source Step = 100%
Source Step = 100%
Source Step = 100%
Source Step = 100%
Source Step = 100%
Source Step = 100%
Source Step = 100%
Source Step = 100%
Source Step = 100%
Source Step = 100%
Source Step = 100%
Source Step = 100%
Source Step = 100%
Source Step = 100%
Source Step = 100%
Source Step = 100%
Source Step = 100%
Source Step = 100%
Source Step = 100%
Source Step = 100%
Source Step = 100%
Source Step = 100%
Source Step = 100%
Source Step = 100%
Source Step = 100%
Source Step = 100%
Source Step = 100%
Source Step = 100%
Source Step = 100%
Source Step = 100%
Source Step = 100%
Source Step = 100%
Source Step = 100%
Source Step = 100%
Source Step = 100%
Source Step = 100%
Source Step = 100%
Source Step = 100%
Source Step = 100%
Source Step = 100%
Source Step = 100%
Source Step = 100%
Source Step = 100%
Source Step = 100%
Source Step = 100%
Source Step = 100%
Source Step = 100%
Source Step = 100%
Source Step = 100%
Source Step = 100%
Source Step = 100%
Source Step = 100%
Source Step = 100%
Source Step = 100%
Source Step = 100%
Source Step = 100%
Source Step = 100%
Source Step = 100%
Source Step = 100%
Source Step = 100%
Source Step = 100%
Source Step = 100%
Source Step = 100%
Source Step = 100%
Source Step = 100%
Source Step = 100%
Source Step = 100%
Source Step = 100%
Source Step = 100%
Source Step = 100%
Source Step = 100%
Source Step = 100%
Source Step = 100%
Source Step = 100%
Source Step = 100%
Source Step = 100%
Source Step = 100%
Source Step = 100%
Source Step = 100%
Source Step = 100%
Source Step = 100%
Source Step = 100%
Source Step = 100%
Source Step = 100%
Source Step = 100%
Source Step = 100%
Source Step = 100%
Source Step = 100%
Source Step = 100%
Source Step = 100%
Source Step = 100%
Source Step = 100%
Source Step = 100%
Source Step = 100%
Source Step = 100%
Source Step = 100%
Source Step = 100%
Source Step = 100%
Source Step = 100%
Source Step = 100%
Source Step = 100%
Source Step = 100%
Source Step = 100%
Source Step = 100%
Source Step = 100%
Source Step = 100%
Source Step = 100%
Source Step = 100%
Source Step = 100%
Source Step = 100%
Source Step = 100%
Source Step = 100%
Source Step = 100%
Source Step = 100%
Source Step = 100%
Source Step = 100%
Source Step = 100%
Source Step = 100%
Source Step = 100%
Source Step = 100%
Source Step = 100%
Source Step = 100%
Source Step = 100%
Source Step = 100%
Source Step = 100%
Source Step = 100%
Source Step = 100%
Source Step = 100%
Source Step = 100%
Source Step = 100%
Source Step = 100%
Source Step = 100%
Source Step = 100%
Source Step = 100%
Source Step = 100%
Source Step = 100%
Source Step = 100%
Source Step = 100%
Source Step = 100%
Source Step = 100%
Source Step = 100%
Source Step = 100%
Source Step = 100%
Source Step = 100%
Source Step = 100%
Source Step = 100%
Source Step = 100%
Source Step = 100%
Source Step = 100%
Source Step = 100%
Source Step = 100%
Source Step = 100%
Source Step = 100%
Source Step = 100%
Source Step = 100%
Source Step = 100%
Source Step = 100%
Source Step = 100%
Source Step = 100%
Source Step = 100%
Source Step = 100%
Source Step = 100%
Source Step = 100%
Source Step = 100%
Source Step = 100%
Source Step = 100%
Source Step = 100%
Source Step = 100%
Source Step = 100%
Source Step = 100%
Source Step = 100%
Source Step = 100%
Source Step = 100%
Source Step = 100%
Source Step = 100%
Source Step = 100%
Source Step = 100%
Source Step = 100%
Source Step = 100%
Source Step = 100%
Source Step = 100%
Source Step = 100%
Source Step = 100%
Source Step = 100%
Source Step = 100%
Source Step = 100%
Source Step = 100%
Source Step = 100%
Source Step = 100%
Source Step = 100%
Source Step = 100%
Source Step = 100%
Source Step = 100%
Source Step = 100%
Source Step = 100%
Source Step = 100%
Source Step = 100%
Source Step = 100%
Source Step = 100%
Source Step = 100%
Source Step = 100%
Source Step = 100%
Source Step = 100%
Source Step = 100%
Source Step = 100%
Source Step = 100%
Source Step = 100%
Source Step = 100%
Source Step = 100%
Source Step = 100%
Source Step = 100%
Source Step = 100%
Source Step = 100%
Source Step = 100%
Source Step = 100%
Source Step = 100%
Source Step = 100%
Source Step = 100%
Source Step = 100%
Source Step = 100%
Source Step = 100%
Source Step = 100%
Source Step = 100%
Source Step = 100%
Source Step = 100%
Source Step = 100%
Source Step = 100%
Source Step = 100%
Source Step = 100%
Source Step = 100%
Source Step = 100%
Source Step = 100%
Source Step = 100%
Source Step = 100%
Source Step = 100%
Source Step = 100%
Source Step = 100%
Source Step = 100%
Source Step = 100%
Source Step = 100%
Source Step = 100%
Source Step = 100%
Source Step = 100%
Source Step = 100%
Source Step = 100%
Source Step = 100%
Source Step = 100%
Source Step = 100%
Source Step = 100%
Source Step = 100%
Source Step = 100%
Source Step = 100%
Source Step = 100%
Source Step = 100%
Source Step = 100%
Source Step = 100%
Source Step = 100%
Source Step = 100%
Source Step = 100%
Source Step = 100%
Source Step = 100%
Source Step = 100%
Source Step = 100%
Source Step = 100%
Source Step = 100%
Source Step = 100%
Source Step = 100%
Source Step = 100%
Source Step = 100%
Source Step = 100%
Source Step = 100%
Source Step = 100%
Source Step = 100%
Source Step = 100%
Source Step = 100%
Source Step = 100%
Source Step = 100%
Source Step = 100%
Source Step = 100%
Source Step = 100%
Source Step = 100%
Source Step = 100%
Source Step = 100%
Source Step = 100%
Source Step = 100%
Source Step = 100%
Source Step = 100%
Source Step = 100%
Source Step = 100%
